<?xml version="1.0" encoding="UTF-8"?>

<!-- generated on 2023-06-08 15:45:44 by Eclipse SUMO netconvert Version 1.16.0
<configuration xmlns:xsi="http://www.w3.org/2001/XMLSchema-instance" xsi:noNamespaceSchemaLocation="http://sumo.dlr.de/xsd/netconvertConfiguration.xsd">

    <input>
        <node-files value="circle.nod.xml"/>
        <edge-files value="circle.edg.xml"/>
    </input>

    <output>
        <precision value="6"/>
        <output-file value="circle.net.xml"/>
    </output>

</configuration>
-->

<net version="1.16" junctionCornerDetail="5" limitTurnSpeed="5.500000" xmlns:xsi="http://www.w3.org/2001/XMLSchema-instance" xsi:noNamespaceSchemaLocation="http://sumo.dlr.de/xsd/net_file.xsd">

    <location netOffset="636.720000,636.720000" convBoundary="0.000000,0.000000,1273.440000,1273.440000" origBoundary="-636.720000,-636.720000,636.720000,636.720000" projParameter="!"/>

    <edge id=":node1_0" function="internal">
        <lane id=":node1_0_0" index="0" speed="100.000000" length="0.299988" shape="656.310875,1264.828532 656.609117,1264.819207"/>
        <lane id=":node1_0_1" index="1" speed="100.000000" length="0.299988" shape="656.410077,1268.026994 656.709918,1268.017619"/>
        <lane id=":node1_0_2" index="2" speed="100.000000" length="0.299988" shape="656.509279,1271.225456 656.810718,1271.216031"/>
    </edge>
    <edge id=":node2_0" function="internal">
        <lane id=":node2_0_0" index="0" speed="100.000000" length="0.299988" shape="617.129125,8.611468 616.830883,8.620793"/>
        <lane id=":node2_0_1" index="1" speed="100.000000" length="0.299988" shape="617.029923,5.413006 616.730082,5.422381"/>
        <lane id=":node2_0_2" index="2" speed="100.000000" length="0.299988" shape="616.930721,2.214544 616.629282,2.223969"/>
    </edge>

    <edge id="edg1" from="node1" to="node2" priority="-1" length="2000.000000" shape="656.710000,1272.820000 676.700000,1272.190000 716.520000,1268.420000 756.030000,1262.170000 795.070000,1253.440000 833.480000,1242.280000 871.110000,1228.730000 907.820000,1212.850000 943.460000,1194.690000 977.890000,1174.320000 1010.980000,1151.840000 1042.580000,1127.320000 1072.590000,1100.870000 1100.870000,1072.590000 1127.320000,1042.580000 1151.840000,1010.980000 1174.320000,977.890000 1194.690000,943.460000 1212.850000,907.820000 1228.730000,871.110000 1242.280000,833.480000 1253.440000,795.070000 1262.170000,756.030000 1268.420000,716.520000 1272.190000,676.700000 1273.440000,636.720000 1272.190000,596.740000 1268.420000,556.920000 1262.170000,517.410000 1253.440000,478.370000 1242.280000,439.960000 1228.730000,402.330000 1212.850000,365.620000 1194.690000,329.980000 1174.320000,295.550000 1151.840000,262.460000 1127.320000,230.860000 1100.870000,200.850000 1072.590000,172.570000 1042.580000,146.120000 1010.980000,121.600000 977.890000,99.120000 943.460000,78.750000 907.820000,60.590000 871.110000,44.710000 833.480000,31.160000 795.070000,20.000000 756.030000,11.270000 716.520000,5.020000 676.700000,1.250000 636.720000,0.000000 616.730000,0.620000">
        <lane id="edg1_0" index="0" speed="100.000000" length="2000.000000" shape="656.609117,1264.819207 676.196484,1264.201897 715.517023,1260.479184 754.530619,1254.307709 793.079087,1245.687624 831.006351,1234.667882 868.163850,1221.288023 904.412520,1205.607585 939.603403,1187.676428 973.601254,1167.562102 1006.275358,1145.364645 1037.478022,1121.152958 1067.111311,1095.034980 1095.034980,1067.111311 1121.152958,1037.478022 1145.364645,1006.275358 1167.562102,973.601254 1187.676428,939.603403 1205.607585,904.412520 1221.288023,868.163850 1234.667882,831.006351 1245.687624,793.079087 1254.307709,754.530619 1260.479184,715.517023 1264.201802,676.197480 1265.436091,636.720000 1264.201802,597.242520 1260.479184,557.922977 1254.307709,518.909381 1245.687624,480.360913 1234.667882,442.433649 1221.288023,405.276150 1205.607585,369.027480 1187.676428,333.836597 1167.562102,299.838746 1145.364645,267.164642 1121.152958,235.961978 1095.034980,206.328689 1067.111311,178.405020 1037.478022,152.287042 1006.275358,128.075355 973.601254,105.877898 939.603403,85.763572 904.412520,67.832415 868.163850,52.151977 831.006351,38.772118 793.079087,27.752376 754.530619,19.132291 715.517023,12.960816 676.197480,9.238198 636.719000,8.003878 617.129125,8.611468"/>
        <lane id="edg1_1" index="1" speed="100.000000" length="2000.000000" shape="656.709918,1268.017619 676.397890,1267.397138 715.918214,1263.655510 755.130371,1257.452625 793.875452,1248.788574 831.995811,1237.712729 869.342310,1224.264814 905.775512,1208.504551 941.146042,1190.481857 975.316752,1170.265261 1008.157215,1147.954787 1039.518813,1123.619775 1069.302787,1097.368988 1097.368988,1069.302787 1123.619775,1039.518813 1147.954787,1008.157215 1170.265261,975.316752 1190.481857,941.146042 1208.504551,905.775512 1224.264814,869.342310 1237.712729,831.995811 1248.788574,793.875452 1257.452625,755.130371 1263.655510,715.918214 1267.397081,676.398488 1268.637654,636.720000 1267.397081,597.041512 1263.655510,557.521786 1257.452625,518.309629 1248.788574,479.564548 1237.712729,441.444189 1224.264814,404.097690 1208.504551,367.664488 1190.481857,332.293958 1170.265261,298.123248 1147.954787,265.282785 1123.619775,233.921187 1097.368988,204.137213 1069.302787,176.071012 1039.518813,149.820225 1008.157215,125.485213 975.316752,103.174739 941.146042,82.958143 905.775512,64.935449 869.342310,49.175186 831.995811,35.727271 793.875452,24.651426 755.130371,15.987375 715.918214,9.784490 676.398488,6.042919 636.719400,4.802327 617.029923,5.413006"/>
        <lane id="edg1_2" index="2" speed="100.000000" length="2000.000000" shape="656.810718,1271.216031 676.599297,1270.592379 716.319405,1266.831837 755.730124,1260.597542 794.671817,1251.889525 832.985270,1240.757576 870.520770,1227.241605 907.138504,1211.401517 942.688681,1193.287286 977.032251,1172.968420 1010.039072,1150.544929 1041.559604,1126.086592 1071.494262,1099.702996 1099.702996,1071.494262 1126.086592,1041.559604 1150.544929,1010.039072 1172.968420,977.032251 1193.287286,942.688681 1211.401517,907.138504 1227.241605,870.520770 1240.757576,832.985270 1251.889525,794.671817 1260.597542,755.730124 1266.831837,716.319405 1270.592360,676.599496 1271.839218,636.720000 1270.592360,596.840504 1266.831837,557.120595 1260.597542,517.709876 1251.889525,478.768183 1240.757576,440.454730 1227.241605,402.919230 1211.401517,366.301496 1193.287286,330.751319 1172.968420,296.407749 1150.544929,263.400928 1126.086592,231.880396 1099.702996,201.945738 1071.494262,173.737004 1041.559604,147.353408 1010.039072,122.895071 977.032251,100.471580 942.688681,80.152714 907.138504,62.038483 870.520770,46.198395 832.985270,32.682424 794.671817,21.550475 755.730124,12.842458 716.319405,6.608163 676.599496,2.847640 636.719800,1.600776 616.930721,2.214544"/>
    </edge>
    <edge id="edg2" from="node2" to="node1" priority="-1" length="2000.000000" shape="616.730000,0.620000 596.740000,1.250000 556.920000,5.020000 517.410000,11.270000 478.370000,20.000000 439.960000,31.160000 402.330000,44.710000 365.620000,60.590000 329.980000,78.750000 295.550000,99.120000 262.460000,121.600000 230.860000,146.120000 200.850000,172.570000 172.570000,200.850000 146.120000,230.860000 121.600000,262.460000 99.120000,295.550000 78.750000,329.980000 60.590000,365.620000 44.710000,402.330000 31.160000,439.960000 20.000000,478.370000 11.270000,517.410000 5.020000,556.920000 1.250000,596.740000 0.000000,636.720000 1.250000,676.700000 5.020000,716.520000 11.270000,756.030000 20.000000,795.070000 31.160000,833.480000 44.710000,871.110000 60.590000,907.820000 78.750000,943.460000 99.120000,977.890000 121.600000,1010.980000 146.120000,1042.580000 172.570000,1072.590000 200.850000,1100.870000 230.860000,1127.320000 262.460000,1151.840000 295.550000,1174.320000 329.980000,1194.690000 365.620000,1212.850000 402.330000,1228.730000 439.960000,1242.280000 478.370000,1253.440000 517.410000,1262.170000 556.920000,1268.420000 596.740000,1272.190000 636.720000,1273.440000 656.710000,1272.820000">
        <lane id="edg2_0" index="0" speed="100.000000" length="2000.000000" shape="616.830883,8.620793 597.243516,9.238103 557.922977,12.960816 518.909381,19.132291 480.360913,27.752376 442.433649,38.772118 405.276150,52.151977 369.027480,67.832415 333.836597,85.763572 299.838746,105.877898 267.164642,128.075355 235.961978,152.287042 206.328689,178.405020 178.405020,206.328689 152.287042,235.961978 128.075355,267.164642 105.877898,299.838746 85.763572,333.836597 67.832415,369.027480 52.151977,405.276150 38.772118,442.433649 27.752376,480.360913 19.132291,518.909381 12.960816,557.922977 9.238198,597.242520 8.003909,636.720000 9.238198,676.197480 12.960816,715.517023 19.132291,754.530619 27.752376,793.079087 38.772118,831.006351 52.151977,868.163850 67.832415,904.412520 85.763572,939.603403 105.877898,973.601254 128.075355,1006.275358 152.287042,1037.478022 178.405020,1067.111311 206.328689,1095.034980 235.961978,1121.152958 267.164642,1145.364645 299.838746,1167.562102 333.836597,1187.676428 369.027480,1205.607585 405.276150,1221.288023 442.433649,1234.667882 480.360913,1245.687624 518.909381,1254.307709 557.922977,1260.479184 597.242520,1264.201802 636.721000,1265.436122 656.310875,1264.828532"/>
        <lane id="edg2_1" index="1" speed="100.000000" length="2000.000000" shape="616.730082,5.422381 597.042110,6.042862 557.521786,9.784490 518.309629,15.987375 479.564548,24.651426 441.444189,35.727271 404.097690,49.175186 367.664488,64.935449 332.293958,82.958143 298.123248,103.174739 265.282785,125.485213 233.921187,149.820225 204.137213,176.071012 176.071012,204.137213 149.820225,233.921187 125.485213,265.282785 103.174739,298.123248 82.958143,332.293958 64.935449,367.664488 49.175186,404.097690 35.727271,441.444189 24.651426,479.564548 15.987375,518.309629 9.784490,557.521786 6.042919,597.041512 4.802346,636.720000 6.042919,676.398488 9.784490,715.918214 15.987375,755.130371 24.651426,793.875452 35.727271,831.995811 49.175186,869.342310 64.935449,905.775512 82.958143,941.146042 103.174739,975.316752 125.485213,1008.157215 149.820225,1039.518813 176.071012,1069.302787 204.137213,1097.368988 233.921187,1123.619775 265.282785,1147.954787 298.123248,1170.265261 332.293958,1190.481857 367.664488,1208.504551 404.097690,1224.264814 441.444189,1237.712729 479.564548,1248.788574 518.309629,1257.452625 557.521786,1263.655510 597.041512,1267.397081 636.720600,1268.637673 656.410077,1268.026994"/>
        <lane id="edg2_2" index="2" speed="100.000000" length="2000.000000" shape="616.629282,2.223969 596.840703,2.847621 557.120595,6.608163 517.709876,12.842458 478.768183,21.550475 440.454730,32.682424 402.919230,46.198395 366.301496,62.038483 330.751319,80.152714 296.407749,100.471580 263.400928,122.895071 231.880396,147.353408 201.945738,173.737004 173.737004,201.945738 147.353408,231.880396 122.895071,263.400928 100.471580,296.407749 80.152714,330.751319 62.038483,366.301496 46.198395,402.919230 32.682424,440.454730 21.550475,478.768183 12.842458,517.709876 6.608163,557.120595 2.847640,596.840504 1.600782,636.720000 2.847640,676.599496 6.608163,716.319405 12.842458,755.730124 21.550475,794.671817 32.682424,832.985270 46.198395,870.520770 62.038483,907.138504 80.152714,942.688681 100.471580,977.032251 122.895071,1010.039072 147.353408,1041.559604 173.737004,1071.494262 201.945738,1099.702996 231.880396,1126.086592 263.400928,1150.544929 296.407749,1172.968420 330.751319,1193.287286 366.301496,1211.401517 402.919230,1227.241605 440.454730,1240.757576 478.768183,1251.889525 517.709876,1260.597542 557.120595,1266.831837 596.840504,1270.592360 636.720200,1271.839224 656.509279,1271.225456"/>
    </edge>

    <junction id="node1" type="priority" x="656.710000" y="1272.820000" incLanes="edg2_0 edg2_1 edg2_2" intLanes=":node1_0_0 :node1_0_1 :node1_0_2" shape="656.861118,1272.815237 656.558717,1263.220001 656.261274,1263.229301 656.558879,1272.824687">
        <request index="0" response="000" foes="000" cont="0"/>
        <request index="1" response="000" foes="000" cont="0"/>
        <request index="2" response="000" foes="000" cont="0"/>
    </junction>
    <junction id="node2" type="priority" x="616.730000" y="0.620000" incLanes="edg1_0 edg1_1 edg1_2" intLanes=":node2_0_0 :node2_0_1 :node2_0_2" shape="617.178726,10.210699 616.881121,0.615313 616.578882,0.624763 616.881283,10.219999">
        <request index="0" response="000" foes="000" cont="0"/>
        <request index="1" response="000" foes="000" cont="0"/>
        <request index="2" response="000" foes="000" cont="0"/>
    </junction>

    <connection from="edg1" to="edg2" fromLane="0" toLane="0" via=":node2_0_0" dir="s" state="M"/>
    <connection from="edg1" to="edg2" fromLane="1" toLane="1" via=":node2_0_1" dir="s" state="M"/>
    <connection from="edg1" to="edg2" fromLane="2" toLane="2" via=":node2_0_2" dir="s" state="M"/>
    <connection from="edg2" to="edg1" fromLane="0" toLane="0" via=":node1_0_0" dir="s" state="M"/>
    <connection from="edg2" to="edg1" fromLane="1" toLane="1" via=":node1_0_1" dir="s" state="M"/>
    <connection from="edg2" to="edg1" fromLane="2" toLane="2" via=":node1_0_2" dir="s" state="M"/>

    <connection from=":node1_0" to="edg1" fromLane="0" toLane="0" dir="s" state="M"/>
    <connection from=":node1_0" to="edg1" fromLane="1" toLane="1" dir="s" state="M"/>
    <connection from=":node1_0" to="edg1" fromLane="2" toLane="2" dir="s" state="M"/>
    <connection from=":node2_0" to="edg2" fromLane="0" toLane="0" dir="s" state="M"/>
    <connection from=":node2_0" to="edg2" fromLane="1" toLane="1" dir="s" state="M"/>
    <connection from=":node2_0" to="edg2" fromLane="2" toLane="2" dir="s" state="M"/>

</net>
