<?xml version="1.0"?>

<!--
// Copyright (C) 2011 Christoph Sommer <sommer@ccs-labs.org>
//
// Documentation for these modules is at http://veins.car2x.org/
//
// SPDX-License-Identifier: (GPL-2.0-or-later OR CC-BY-SA-4.0)
//
// This program is free software; you can redistribute it and/or modify
// it under the terms of the GNU General Public License as published by
// the Free Software Foundation; either version 2 of the License, or
// (at your option) any later version.
//
// This program is distributed in the hope that it will be useful,
// but WITHOUT ANY WARRANTY; without even the implied warranty of
// MERCHANTABILITY or FITNESS FOR A PARTICULAR PURPOSE.  See the
// GNU General Public License for more details.
//
// You should have received a copy of the GNU General Public License
// along with this program; if not, write to the Free Software
// Foundation, Inc., 59 Temple Place, Suite 330, Boston, MA  02111-1307  USA
//
// -
//
// At your option, you can also redistribute and/or modify this file
// under a
// Creative Commons Attribution-ShareAlike 4.0 International License.
//
// You should have received a copy of the license along with this
// work.  If not, see <http://creativecommons.org/licenses/by-sa/4.0/>.
-->

<!--
194 Cars leaving the Computer Science Building and campus of the University of Erlangen-Nuremberg
-->

<routes>
   <vType id="vtype0" maxSpeed="95" accel="18" decel="40" length="2.5" minGap="2.5" speedFactor="normc(0.83, 0.1, 0.75, 0.92)" color="1,1,0" lcStrategic="100.0" lcOvertakeRight="1.0" lcSpeedGain="1000" lcKeepRightAcceptanceTime="0.2" lcKeepRight="999999999999" lcAssertive = "100000"/>
   <route id="route0" edges="edg1 edg2"/>
   <flow id="flow0" type="vtype0" route="route0"  begin="0" departLane="0" period="0" number="7"/>
   <flow id="flow1" type="vtype0" route="route0"  begin="0" departLane="1" period="0" number="7"/>
   <flow id="flow2" type="vtype0" route="route0"  begin="0" departLane="2" period="0" number="6"/>
</routes>
